/*--------------------------------*- C++ -*----------------------------------*\
| =========                 |                                                 |
| \\      /  F ield         | OpenFOAM: The Open Source CFD Toolbox           |
|  \\    /   O peration     | Version:  2.1.x                                 |
|   \\  /    A nd           | Web:      www.OpenFOAM.org                      |
|    \\/     M anipulation  |                                                 |
\*---------------------------------------------------------------------------*/
FoamFile
{
    version     2.0;
    format      ascii;
    class       dictionary;
    object      fvSolution;
}
// * * * * * * * * * * * * * * * * * * * * * * * * * * * * * * * * * * * * * //

solvers
{
    fi_f
    {
        solver           PCG;
        preconditioner   DIC;
        tolerance        1e-06;
        relTol           0;//0.5;
    }
}

SIMPLE
{
    nNonOrthogonalCorrectors 0;
    conv_fi_f                1.0e-5;
}

relaxationFactors
{
    fields
    {
	//fi_f               0.9;//
    }
    equations
    {
        fi_f               0;
    }
}

// ************************************************************************* //
