/*--------------------------------*- C++ -*----------------------------------*\
  =========                 |
  \\      /  F ield         | OpenFOAM: The Open Source CFD Toolbox
   \\    /   O peration     | Website:  https://openfoam.org
    \\  /    A nd           | Version:  dev
     \\/     M anipulation  |
\*---------------------------------------------------------------------------*/
FoamFile
{
    version     2.0;
    format      ascii;
    class       volScalarField;
    location    "0/feeder";
    object      fi_s;
}
// * * * * * * * * * * * * * * * * * * * * * * * * * * * * * * * * * * * * * //

dimensions      [ 1 2 -3 0 0 -1 0 ];

internalField   uniform 0;

boundaryField
{

    ".*"
    {
        type            zeroGradient;
    }

    frontAndBack
    {
        type            empty;
    }

    leftLet
    {
	type            fixedValue;
        value           uniform 0;
    }
    feeder_to_porous
    {
        type            regionCoupledPorousSolidFluid;
        nbrField        fi_s;
        value           $internalField;
        kappaMethod     lookup;
        kappa           ks; //neighbour kappa
    }
}


// ************************************************************************* //
