/*--------------------------------*- C++ -*----------------------------------*\
| =========                 |                                                 |
| \\      /  F ield         | OpenFOAM: The Open Source CFD Toolbox           |
|  \\    /   O peration     | Version:  6                                     |
|   \\  /    A nd           | Web:      http://www.OpenFOAM.org               |
|    \\/     M anipulation  |                                                 |
\*---------------------------------------------------------------------------*/
FoamFile
{
    version     2.0;
    format      ascii;
    class       volScalarField;
    object      C_;
}
// * * * * * * * * * * * * * * * * * * * * * * * * * * * * * * * * * * * * * //
dimensions      [0 -3 0 0 1 0 0];

internalField   uniform 10;

boundaryField
{
    ".*"
    {
        type            zeroGradient;
    }
    bottom
    {
        type            fixedValue;
	value		uniform 10;
    }
    frontAndBack
    {
        type            empty;
    }
}

// ************************************************************************* //
