/*--------------------------------*- C++ -*----------------------------------*\
  =========                 |
  \\      /  F ield         | OpenFOAM: The Open Source CFD Toolbox
   \\    /   O peration     | Website:  https://openfoam.org
    \\  /    A nd           | Version:  dev
     \\/     M anipulation  |
\*---------------------------------------------------------------------------*/
FoamFile
{
    version     2.0;
    format      ascii;
    class       volScalarField;
    location    "0/electrolyte";
    object      fi_f;
}
// * * * * * * * * * * * * * * * * * * * * * * * * * * * * * * * * * * * * * //

dimensions      [ 1 2 -3 0 0 -1 0 ];

internalField   uniform 0.4;

boundaryField
{
    ".*"
    {
        type            zeroGradient;
    }

    frontAndBack
    {
        type            empty;
    }

    electrolyte_to_anode
    {

	/*type            regionCoupledPorousSolidFluid;
        nbrField        fi_s;
        value           $internalField;
        kappaMethod     lookup;
        kappa           kf; */
        type	        regionCoupledSolidFluid;
        side	        fluid;
	nbrField        fi_s;
        value           $internalField;
	j0		(1);
	b		(0.05);
        E0		(0);
        kappaMethod     lookup;
        kappa           kf;    
    }

    electrolyte_to_porous
    {
        type            regionCoupledPorousSolidFluid;
        nbrField        fi_f;
        value           $internalField;
        kappaMethod     lookup;
        kappa           kf; 
    }
}


// ************************************************************************* //
