/*--------------------------------*- C++ -*----------------------------------*\
  =========                 |
  \\      /  F ield         | OpenFOAM: The Open Source CFD Toolbox
   \\    /   O peration     | Website:  https://openfoam.org
    \\  /    A nd           | Version:  dev
     \\/     M anipulation  |
\*---------------------------------------------------------------------------*/
FoamFile
{
    version     2.0;
    format      ascii;
    class       dictionary;
    location    "system";
    object      controlDict;
}
// * * * * * * * * * * * * * * * * * * * * * * * * * * * * * * * * * * * * * //

application     multiRegionPorousPotentialFoam;

startFrom       startTime;

startTime       0;

stopAt          endTime;

endTime         100000;

deltaT          1;

writeControl    timeStep;

writeInterval   1000;

purgeWrite      1;

writeFormat     ascii;

writePrecision  7;

writeCompression uncompressed;

timeFormat      general;

timePrecision   6;

runTimeModifiable true;

libs (
	"libregionCoupledPorousSolidFluid.so"
	"libregionCoupledSolidFluid.so"
        "libcompressibleTurbulenceModels.so"
     );

// ************************************************************************* //
